<?xml version="1.0" encoding="UTF-8"?>
<!DOCTYPE network SYSTEM "http://www.matsim.org/files/dtd/network_v2.dtd">
<network name="DepotA-DepotB truck network (~202 km)">
    <nodes>
        <node id="A"  x="0"      y="0"     z="20"/>
        <node id="M1" x="70000"  y="10000" z="90"/>
        <node id="M2" x="140000" y="20000" z="130"/>
        <node id="B"  x="200000" y="30000" z="160"/>
    </nodes>
    <links capperiod="01:00:00">
        <link id="A_M1"  from="A"  to="M1" length="70711" freespeed="22.22" capacity="2000" permlanes="2" modes="car"/>
        <link id="M1_M2" from="M1" to="M2" length="70711" freespeed="22.22" capacity="2000" permlanes="2" modes="car"/>
        <link id="M2_B"  from="M2" to="B"  length="60828" freespeed="22.22" capacity="2000" permlanes="2" modes="car"/>
        <link id="B_M2"  from="B"  to="M2" length="60828" freespeed="22.22" capacity="2000" permlanes="2" modes="car"/>
        <link id="M2_M1" from="M2" to="M1" length="70711" freespeed="22.22" capacity="2000" permlanes="2" modes="car"/>
        <link id="M1_A"  from="M1" to="A"  length="70711" freespeed="22.22" capacity="2000" permlanes="2" modes="car"/>
    </links>
</network>