<?xml version="1.0" encoding="UTF-8"?>
<!DOCTYPE population SYSTEM "http://www.matsim.org/files/dtd/population_v6.dtd">
<population>
    <person id="truck_1">
        <attributes>
            <attribute name="payload_kg" class="java.lang.Double">26000.0</attribute>
        </attributes>
        <plan selected="yes">
            <activity type="depot"  link="A_M1"  end_time="04:00:00"/>
            <leg mode="car"/>
            <activity type="unload" link="M2_B"  end_time="09:00:00"/>
            <leg mode="car"/>
            <activity type="depot"  link="M1_A"  end_time="13:00:00"/>
            <leg mode="car"/>
            <activity type="unload" link="M2_B"  end_time="18:00:00"/>
            <leg mode="car"/>
            <activity type="depot"  link="M1_A"/>
        </plan>
    </person>
</population>